/*--------------------------------*- C++ -*----------------------------------*\
  =========                 |
  \\      /  F ield         | OpenFOAM: The Open Source CFD Toolbox
   \\    /   O peration     | Website:  https://openfoam.org
    \\  /    A nd           | Version:  6
     \\/     M anipulation  |
\*---------------------------------------------------------------------------*/
FoamFile
{
    version     2.0;
    format      ascii;
    class       polyBoundaryMesh;
    location    "constant/polyMesh";
    object      boundary;
}
// * * * * * * * * * * * * * * * * * * * * * * * * * * * * * * * * * * * * * //

6
(
    inlet
    {
        type            patch;
        nFaces          30;
        startFace       5945;
    }
    outlet
    {
        type            patch;
        nFaces          0;
        startFace       5975;
    }
    upperWall
    {
        type            wall;
        inGroups        1(wall);
        nFaces          61;
        startFace       5975;
    }
    lowerWall
    {
        type            wall;
        inGroups        1(wall);
        nFaces          89;
        startFace       6036;
    }
    frontAndBack
    {
        type            empty;
        inGroups        1(empty);
        nFaces          6064;
        startFace       6125;
    }
    procBoundary2to3
    {
        type            processor;
        inGroups        1(processor);
        nFaces          58;
        startFace       12189;
        matchTolerance  0.0001;
        transform       unknown;
        myProcNo        2;
        neighbProcNo    3;
    }
)

// ************************************************************************* //
