/*--------------------------------*- C++ -*----------------------------------*\
  =========                 |
  \\      /  F ield         | OpenFOAM: The Open Source CFD Toolbox
   \\    /   O peration     | Website:  https://openfoam.org
    \\  /    A nd           | Version:  6
     \\/     M anipulation  |
\*---------------------------------------------------------------------------*/
FoamFile
{
    version     2.0;
    format      ascii;
    class       polyBoundaryMesh;
    location    "constant/polyMesh";
    object      boundary;
}
// * * * * * * * * * * * * * * * * * * * * * * * * * * * * * * * * * * * * * //

6
(
    Outlet
    {
        type            patch;
        nFaces          0;
        startFace       3430;
    }
    Inlet
    {
        type            patch;
        nFaces          36;
        startFace       3430;
    }
    Others
    {
        type            empty;
        inGroups        1(empty);
        nFaces          50;
        startFace       3466;
    }
    walls
    {
        type            wall;
        inGroups        1(wall);
        nFaces          3516;
        startFace       3516;
    }
    procBoundary1to0
    {
        type            processor;
        inGroups        1(processor);
        nFaces          51;
        startFace       7032;
        matchTolerance  0.0001;
        transform       unknown;
        myProcNo        1;
        neighbProcNo    0;
    }
    procBoundary1to2
    {
        type            processor;
        inGroups        1(processor);
        nFaces          35;
        startFace       7083;
        matchTolerance  0.0001;
        transform       unknown;
        myProcNo        1;
        neighbProcNo    2;
    }
)

// ************************************************************************* //
