/*--------------------------------*- C++ -*----------------------------------*\
  =========                 |
  \\      /  F ield         | OpenFOAM: The Open Source CFD Toolbox
   \\    /   O peration     | Website:  https://openfoam.org
    \\  /    A nd           | Version:  6
     \\/     M anipulation  |
\*---------------------------------------------------------------------------*/
FoamFile
{
    version     2.0;
    format      ascii;
    class       polyBoundaryMesh;
    location    "constant/polyMesh";
    object      boundary;
}
// * * * * * * * * * * * * * * * * * * * * * * * * * * * * * * * * * * * * * //

6
(
    Outlet
    {
        type            patch;
        nFaces          35;
        startFace       3415;
    }
    Inlet
    {
        type            patch;
        nFaces          0;
        startFace       3450;
    }
    Others
    {
        type            empty;
        inGroups        1(empty);
        nFaces          50;
        startFace       3450;
    }
    walls
    {
        type            wall;
        inGroups        1(wall);
        nFaces          3500;
        startFace       3500;
    }
    procBoundary2to1
    {
        type            processor;
        inGroups        1(processor);
        nFaces          35;
        startFace       7000;
        matchTolerance  0.0001;
        transform       unknown;
        myProcNo        2;
        neighbProcNo    1;
    }
    procBoundary2to3
    {
        type            processor;
        inGroups        1(processor);
        nFaces          50;
        startFace       7035;
        matchTolerance  0.0001;
        transform       unknown;
        myProcNo        2;
        neighbProcNo    3;
    }
)

// ************************************************************************* //
