/*--------------------------------*- C++ -*----------------------------------*\
  =========                 |
  \\      /  F ield         | OpenFOAM: The Open Source CFD Toolbox
   \\    /   O peration     | Website:  https://openfoam.org
    \\  /    A nd           | Version:  6
     \\/     M anipulation  |
\*---------------------------------------------------------------------------*/
FoamFile
{
    version     2.0;
    format      ascii;
    class       polyBoundaryMesh;
    location    "constant/polyMesh";
    object      boundary;
}
// * * * * * * * * * * * * * * * * * * * * * * * * * * * * * * * * * * * * * //

7
(
    inlet
    {
        type            patch;
        nFaces          0;
        startFace       5952;
    }
    outlet
    {
        type            patch;
        nFaces          0;
        startFace       5952;
    }
    upperWall
    {
        type            wall;
        inGroups        1(wall);
        nFaces          55;
        startFace       5952;
    }
    lowerWall
    {
        type            wall;
        inGroups        1(wall);
        nFaces          49;
        startFace       6007;
    }
    frontAndBack
    {
        type            empty;
        inGroups        1(empty);
        nFaces          6064;
        startFace       6056;
    }
    procBoundary3to1
    {
        type            processor;
        inGroups        1(processor);
        nFaces          62;
        startFace       12120;
        matchTolerance  0.0001;
        transform       unknown;
        myProcNo        3;
        neighbProcNo    1;
    }
    procBoundary3to2
    {
        type            processor;
        inGroups        1(processor);
        nFaces          58;
        startFace       12182;
        matchTolerance  0.0001;
        transform       unknown;
        myProcNo        3;
        neighbProcNo    2;
    }
)

// ************************************************************************* //
