/*--------------------------------*- C++ -*----------------------------------*\
  =========                 |
  \\      /  F ield         | OpenFOAM: The Open Source CFD Toolbox
   \\    /   O peration     | Website:  https://openfoam.org
    \\  /    A nd           | Version:  6
     \\/     M anipulation  |
\*---------------------------------------------------------------------------*/
FoamFile
{
    version     2.0;
    format      ascii;
    class       dictionary;
    location    "system";
    object      fvSolution;
}
// * * * * * * * * * * * * * * * * * * * * * * * * * * * * * * * * * * * * * //

solvers
{
    p
    {
        solver          GAMG;
        tolerance       1e-06;
        relTol          0.01;
        smoother        GaussSeidel;
        cacheAgglomeration true;
        nCellsInCoarsestLevel 10;
        agglomerator    faceAreaPair;
        mergeLevels     1;
    }

    pFinal
    {
        solver          GAMG;
        tolerance       1e-06;
        relTol          0;
        smoother        GaussSeidel;
        cacheAgglomeration true;
        nCellsInCoarsestLevel 10;
        agglomerator    faceAreaPair;
        mergeLevels     1;
    }

    "(U|k|epsilon|sigma)"
    {
        solver          PBiCG;
        preconditioner  DILU;
        tolerance       1e-06;
        relTol          0.1;
    }

    "(U|k|epsilon|sigma)Final"
    {
        $U;
        tolerance       1e-06;
        relTol          0;
    }
}

PIMPLE
{
    nOuterCorrectors 		2;
    nCorrectors     		10;
    nNonOrthogonalCorrectors 	0;
    pRefCell        		0;
    pRefValue       		0;
    momentumPredictor 		on;
    outerCorrectorResidualControl
    {	
		p               {relTol 0; tolerance 1e-5;};
		U                {relTol 0; tolerance 1e-5;};
		"(k|epsilon|omega|f|v2)"  {relTol 0; tolerance 1e-5;};
    }
}

relaxationFactors
{
    fields
    {
	p	1;
	pFinal	1;
    }
    equations
    {
	U	0.4;
	UFinal	0.4;
    }
}


// ************************************************************************* //
