/*--------------------------------*- C++ -*----------------------------------*\
  =========                 |
  \\      /  F ield         | OpenFOAM: The Open Source CFD Toolbox
   \\    /   O peration     | Website:  https://openfoam.org
    \\  /    A nd           | Version:  6
     \\/     M anipulation  |
\*---------------------------------------------------------------------------*/
FoamFile
{
    version     2.0;
    format      ascii;
    class       polyBoundaryMesh;
    location    "constant/polyMesh";
    object      boundary;
}
// * * * * * * * * * * * * * * * * * * * * * * * * * * * * * * * * * * * * * //

6
(
    inlet
    {
        type            patch;
        nFaces          0;
        startFace       6048;
    }
    outlet
    {
        type            patch;
        nFaces          57;
        startFace       6048;
    }
    upperWall
    {
        type            wall;
        inGroups        1(wall);
        nFaces          53;
        startFace       6105;
    }
    lowerWall
    {
        type            wall;
        inGroups        1(wall);
        nFaces          55;
        startFace       6158;
    }
    frontAndBack
    {
        type            empty;
        inGroups        1(empty);
        nFaces          6160;
        startFace       6213;
    }
    procBoundary0to1
    {
        type            processor;
        inGroups        1(processor);
        nFaces          59;
        startFace       12373;
        matchTolerance  0.0001;
        transform       unknown;
        myProcNo        0;
        neighbProcNo    1;
    }
)

// ************************************************************************* //
