/*--------------------------------*- C++ -*----------------------------------*\
  =========                 |
  \\      /  F ield         | OpenFOAM: The Open Source CFD Toolbox
   \\    /   O peration     | Website:  https://openfoam.org
    \\  /    A nd           | Version:  6
     \\/     M anipulation  |
\*---------------------------------------------------------------------------*/
FoamFile
{
    version     2.0;
    format      ascii;
    class       polyBoundaryMesh;
    location    "constant/polyMesh";
    object      boundary;
}
// * * * * * * * * * * * * * * * * * * * * * * * * * * * * * * * * * * * * * //

7
(
    inlet
    {
        type            patch;
        nFaces          0;
        startFace       6046;
    }
    outlet
    {
        type            patch;
        nFaces          0;
        startFace       6046;
    }
    upperWall
    {
        type            wall;
        inGroups        1(wall);
        nFaces          54;
        startFace       6046;
    }
    lowerWall
    {
        type            wall;
        inGroups        1(wall);
        nFaces          57;
        startFace       6100;
    }
    frontAndBack
    {
        type            empty;
        inGroups        1(empty);
        nFaces          6162;
        startFace       6157;
    }
    procBoundary1to0
    {
        type            processor;
        inGroups        1(processor);
        nFaces          59;
        startFace       12319;
        matchTolerance  0.0001;
        transform       unknown;
        myProcNo        1;
        neighbProcNo    0;
    }
    procBoundary1to3
    {
        type            processor;
        inGroups        1(processor);
        nFaces          62;
        startFace       12378;
        matchTolerance  0.0001;
        transform       unknown;
        myProcNo        1;
        neighbProcNo    3;
    }
)

// ************************************************************************* //
