/*--------------------------------*- C++ -*----------------------------------*\
  =========                 |
  \\      /  F ield         | OpenFOAM: The Open Source CFD Toolbox
   \\    /   O peration     | Website:  https://openfoam.org
    \\  /    A nd           | Version:  6
     \\/     M anipulation  |
\*---------------------------------------------------------------------------*/
FoamFile
{
    version     2.0;
    format      ascii;
    class       polyBoundaryMesh;
    location    "constant/polyMesh";
    object      boundary;
}
// * * * * * * * * * * * * * * * * * * * * * * * * * * * * * * * * * * * * * //

4
(
    outflow
    {
        type            patch;
        nFaces          70;
        startFace       13830;
    }
    inlet
    {
        type            patch;
        nFaces          70;
        startFace       13900;
    }
    sideWalls
    {
        type            patch;
        nFaces          200;
        startFace       13970;
    }
    HartmannWalls
    {
        type            patch;
        nFaces          14000;
        startFace       14170;
    }
)

// ************************************************************************* //
