/*--------------------------------------------------------------------*\
|                                                                      |
|    File exported from Salome Platform using SalomeToFoamExporter     |
|                                                                      |
\*--------------------------------------------------------------------*/
FoamFile
{
	version		2.0;
	format		ascii;
	class		polyBoundaryMesh;
	location	"constant/polyMesh";
	object		boundary;
}

6
(
	empty
	{
	type		empty;
	nFaces		6828;
	startFace	13399;
	}
	circle
	{
	type		patch;
	nFaces		100;
	startFace	20227;
	}
	walls
	{
	type		wall;
	nFaces		280;
	startFace	20327;
	}
	inlet
	{
	type		patch;
	nFaces		34;
	startFace	20607;
	}
	outlet
	{
	type		patch;
	nFaces		34;
	startFace	20641;
	}
	empty2
	{
	type		empty;
	nFaces		6828;
	startFace	20675;
	}
)
